18
1Nap
H	1.06000000	0.00000000	0.00000000	
C	0.00000000	0.00000000	0.00000000	
C	-0.69000000	0.85000000	0.85000000	
H	-0.16000000	1.49000000	1.49000000	
C	-2.07000000	0.84000000	0.84000000	
H	-2.60000000	1.49000000	1.49000000	
C	-2.76000000	0.00000000	0.00000000	
H	-3.82000000	0.00000000	0.00000000	
C	-2.07000000	-0.85000000	-0.85000000	
C	-0.69000000	-0.85000000	-0.85000000	
C	0.00000000	-1.69000000	-1.69000000	
H	1.06000000	-1.69000000	-1.69000000	
C	-0.69000000	-2.54000000	-2.54000000	
H	-0.16000000	-3.18000000	-3.18000000	
C	-2.07000000	-2.54000000	-2.54000000	
H	-2.60000000	-3.18000000	-3.18000000	
C	-2.76000000	-1.69000000	-1.69000000	
H	-3.82000000	-1.69000000	-1.69000000	

