26
Ad
H	0.00000000	0.00000000	0.00000000	
C	0.89815000	0.63509000	0.00000000	
C	0.89815000	1.51843000	1.25865000	
H	0.00000000	2.16507000	1.25865000	
H	0.90223000	0.88912000	2.15668000	
C	2.15556000	2.40755000	1.25865000	
H	2.15556000	3.04841000	2.14961000	
C	2.15556000	-0.25981000	0.00000000	
H	2.15964000	-0.88912000	0.89803000	
H	2.15964000	-0.88912000	-0.89803000	
C	3.41296000	0.62932000	0.00000000	
C	3.41296000	1.52998000	1.25865000	
H	3.41296000	0.88912000	2.14961000	
H	4.31111000	2.16507000	1.25865000	
H	4.31111000	0.00000000	0.00000000	
C	3.41296000	1.52998000	-1.25865000	
H	4.31111000	2.16507000	-1.25865000	
H	3.41296000	0.88912000	-2.14961000	
C	2.15556000	2.40755000	-1.25865000	
C	2.15556000	3.30822000	0.00000000	
H	3.05370000	3.94330000	0.00000000	
H	1.25741000	3.93753000	0.00000000	
H	2.15556000	3.04841000	-2.14961000	
C	0.89815000	1.51843000	-1.25865000	
H	0.00000000	2.16507000	-1.25865000	
H	0.90223000	0.88912000	-2.15668000	

